OpenDSS/ColTestCKT_VLN_Node.Txt

LINE-GROUND and LINE-LINE VOLTAGES BY BUS & NODE

Bus    Node    VLN (kV)   Angle      pu     Base kV    Node-Node   VLL (kV)  Angle      pu

MAIN01 1       65.706 /_   -0.5   0.98961   115.000        1-2     113.81 /_   29.5   0.98962
   -   2        65.71 /_ -120.5   0.98968   115.000        2-3     113.82 /_  -90.5   0.98974
   -   3       65.713 /_  119.5   0.98972   115.000        3-1     113.81 /_  149.5   0.98966
MAIN02 1       7.2116 /_  -34.1   0.94628    13.200        1-2     12.496 /_   -4.1   0.94665
   -   2       7.2204 /_ -154.1   0.94743    13.200        2-3       12.5 /_ -124.0   0.94698
   -   3       7.2193 /_   86.0   0.94729    13.200        3-1     12.505 /_  115.9   0.94737
   -   4     0.065483 /_   34.2 0.0085924    13.200
MAIN03 1       6.9914 /_  -34.7   0.91738    13.200        1-2     12.144 /_   -4.6   0.92002
   -   2       7.0344 /_ -154.7   0.92303    13.200        2-3     12.184 /_ -124.6     0.923
   -   3       7.0381 /_   85.4   0.92351    13.200        3-1     12.156 /_  115.2    0.9209
   -   4     0.061899 /_   38.3 0.0081221    13.200
MAIN04 1       6.8204 /_  -35.1   0.89495    13.200        1-2     11.861 /_   -5.0   0.89853
   -   2       6.8722 /_ -155.2   0.90175    13.200        2-3      11.92 /_ -125.2   0.90305
   -   3        6.891 /_   84.8   0.90421    13.200        3-1     11.871 /_  114.7   0.89933
   -   4     0.065229 /_   40.1 0.0085591    13.200
MAIN05 1       6.6534 /_  -35.7   0.87304    13.200        1-2     11.583 /_   -5.5   0.87747
   -   2       6.7223 /_ -155.7   0.88208    13.200        2-3     11.666 /_ -125.7    0.8838
   -   3       6.7369 /_   84.2   0.88399    13.200        3-1     11.588 /_  114.0   0.87785
   -   4     0.063788 /_   38.1   0.00837    13.200
MAIN06 1       6.4676 /_  -36.4   0.84865    13.200        1-2     11.272 /_   -6.0   0.85391
   -   2       6.5656 /_ -156.1   0.86152    13.200        2-3     11.387 /_ -126.4   0.86264
   -   3       6.5524 /_   83.4   0.85978    13.200        3-1     11.265 /_  113.3   0.85342
   -   4     0.056996 /_   30.3 0.0074787    13.200
MAIN07 1       6.3416 /_  -36.9   0.83211    13.200        1-2     11.072 /_   -6.3   0.83877
   -   2       6.4712 /_ -156.4   0.84912    13.200        2-3     11.213 /_ -126.8   0.84946
   -   3       6.4407 /_   83.0   0.84512    13.200        3-1     11.064 /_  112.8   0.83816
   -   4      0.04958 /_   28.4 0.0065056    13.200
MAIN08 1       6.2927 /_  -37.1    0.8257    13.200        1-2     10.996 /_   -6.4   0.83305
   -   2       6.4395 /_ -156.5   0.84497    13.200        2-3     11.149 /_ -126.9   0.84464
   -   3       6.3969 /_   82.9   0.83937    13.200        3-1     10.987 /_  112.6   0.83237
   -   4     0.044892 /_   26.6 0.0058906    13.200
MAIN09 1       6.2115 /_  -37.4   0.81505    13.200        1-2     10.871 /_   -6.6   0.82353
   -   2       6.3867 /_ -156.7   0.83804    13.200        2-3     11.044 /_ -127.2   0.83664
   -   3       6.3239 /_   82.6    0.8298    13.200        3-1      10.86 /_  112.3   0.82275
   -   4     0.037201 /_   22.8 0.0048814    13.200
MAIN10 1       6.2103 /_  -37.5   0.81488    13.200        1-2     10.858 /_   -6.6   0.82254
   -   2       6.3766 /_ -156.7   0.83672    13.200        2-3     11.028 /_ -127.2   0.83544
   -   3       6.3069 /_   82.5   0.82757    13.200        3-1      10.84 /_  112.3   0.82121
   -   4     0.040034 /_   15.6 0.0052532    13.200
MAIN11 1        6.209 /_  -37.5   0.81472    13.200        1-2     10.845 /_   -6.6   0.82156
   -   2       6.3665 /_ -156.6   0.83539    13.200        2-3     11.012 /_ -127.3   0.83424
   -   3       6.2899 /_   82.4   0.82534    13.200        3-1      10.82 /_  112.3   0.81967
   -   4     0.043411 /_    9.4 0.0056962    13.200
MAIN12 1       6.2057 /_  -37.6   0.81428    13.200        1-2     10.838 /_   -6.6   0.82108
   -   2       6.3696 /_ -156.6   0.83579    13.200        2-3     11.009 /_ -127.3   0.83401
   -   3       6.2792 /_   82.4   0.82393    13.200        3-1      10.81 /_  112.2   0.81892
   -   4     0.042029 /_    3.7 0.0055149    13.200
MAIN13 1       6.1952 /_  -37.6   0.81291    13.200        1-2     10.831 /_   -6.6   0.82052
   -   2       6.3764 /_ -156.6   0.83669    13.200        2-3     11.009 /_ -127.3   0.83405
   -   3       6.2764 /_   82.4   0.82357    13.200        3-1     10.805 /_  112.2    0.8186
   -   4     0.036608 /_    1.5 0.0048035    13.200
MAIN14 1       6.1952 /_  -37.6   0.81291    13.200        1-2     10.831 /_   -6.6   0.82052
   -   2       6.3764 /_ -156.6   0.83669    13.200        2-3     11.009 /_ -127.3   0.83405
   -   3       6.2764 /_   82.4   0.82357    13.200        3-1     10.805 /_  112.2    0.8186
   -   4     0.036608 /_    1.5 0.0048035    13.200
LATB19 1         6.46 /_  -36.4   0.84765    13.200        1-2      11.26 /_   -6.0     0.853
   -   2       6.5593 /_ -156.1   0.86069    13.200        2-3     11.376 /_ -126.4   0.86182
   -   3       6.5454 /_   83.4   0.85886    13.200        3-1     11.252 /_  113.3    0.8524
LATB20 1       6.4535 /_  -36.4    0.8468    13.200        1-2     11.249 /_   -6.1   0.85222
   -   2        6.554 /_ -156.2   0.85999    13.200        2-3     11.367 /_ -126.4   0.86112
   -   3       6.5394 /_   83.3   0.85808    13.200        3-1      11.24 /_  113.2   0.85154
LATB21 1       6.4482 /_  -36.5    0.8461    13.200        1-2     11.241 /_   -6.1   0.85158
   -   2       6.5496 /_ -156.2   0.85941    13.200        2-3     11.359 /_ -126.5   0.86055
   -   3       6.5345 /_   83.3   0.85743    13.200        3-1     11.231 /_  113.2   0.85083
LATB22 1        6.444 /_  -36.5   0.84555    13.200        1-2     11.234 /_   -6.1   0.85107
   -   2       6.5461 /_ -156.2   0.85895    13.200        2-3     11.353 /_ -126.5   0.86009
   -   3       6.5306 /_   83.3   0.85692    13.200        3-1     11.224 /_  113.2   0.85027
LATB23 1       6.4411 /_  -36.5   0.84518    13.200        1-2      11.23 /_   -6.1   0.85074
   -   2       6.5437 /_ -156.2   0.85864    13.200        2-3     11.349 /_ -126.5   0.85979
   -   3        6.528 /_   83.3   0.85658    13.200        3-1     11.219 /_  113.2    0.8499
LATB24 1       6.4397 /_  -36.5     0.845    13.200        1-2     11.227 /_   -6.1   0.85057
   -   2       6.5426 /_ -156.2   0.85849    13.200        2-3     11.347 /_ -126.5   0.85964
   -   3       6.5267 /_   83.3   0.85641    13.200        3-1     11.216 /_  113.1   0.84971
LATA15 1       6.6489 /_  -35.7   0.87244    13.200        1-2     11.575 /_   -5.5   0.87692
   -   2       6.7148 /_ -155.7   0.88108    13.200        2-3     11.658 /_ -125.7   0.88318
   -   3       6.7371 /_   84.2   0.88402    13.200        3-1     11.582 /_  114.0   0.87745
   -   4     0.065686 /_   39.5 0.0086191    13.200
LATA16 1       6.6457 /_  -35.7   0.87202    13.200        1-2      11.57 /_   -5.5   0.87651
   -   2       6.7118 /_ -155.7   0.88069    13.200        2-3     11.653 /_ -125.7   0.88282
   -   3       6.7343 /_   84.1   0.88365    13.200        3-1     11.577 /_  114.0   0.87705
   -   4      0.06572 /_   39.5 0.0086235    13.200
LATA17 1       6.6398 /_  -35.7   0.87125    13.200        1-2     11.565 /_   -5.5   0.87613
   -   2       6.7102 /_ -155.7   0.88048    13.200        2-3      11.65 /_ -125.7   0.88259
   -   3       6.7361 /_   84.2   0.88389    13.200        3-1     11.575 /_  114.0   0.87691
   -   4     0.065356 /_   41.6 0.0085757    13.200
LATA18 1       6.6384 /_  -35.7   0.87107    13.200        1-2     11.563 /_   -5.6   0.87599
   -   2       6.7056 /_ -155.8   0.87988    13.200        2-3     11.647 /_ -125.7   0.88235
   -   3       6.7391 /_   84.2   0.88428    13.200        3-1     11.575 /_  114.0   0.87691
   -   4     0.067315 /_   42.9 0.0088328    13.200
LATC25 1       6.3264 /_  -36.9   0.83012    13.200        1-2     11.046 /_   -6.3   0.83685
   -   2        6.457 /_ -156.5   0.84726    13.200        2-3      11.19 /_ -126.8    0.8477
   -   3       6.4275 /_   83.0   0.84339    13.200        3-1     11.038 /_  112.8   0.83625
   -   4     0.049733 /_   28.5 0.0065258    13.200
LATC26 1       6.3155 /_  -36.9    0.8287    13.200        1-2     11.024 /_   -6.4   0.83517
   -   2       6.4399 /_ -156.5   0.84502    13.200        2-3     11.166 /_ -126.9   0.84592
   -   3       6.4154 /_   82.9   0.84181    13.200        3-1     11.015 /_  112.7   0.83447
   -   4     0.052158 /_   28.2  0.006844    13.200
LATC27 1        6.306 /_  -37.0   0.82745    13.200        1-2     11.004 /_   -6.4   0.83362
   -   2       6.4273 /_ -156.5   0.84336    13.200        2-3     11.146 /_ -126.9   0.84437
   -   3       6.4005 /_   82.8   0.83985    13.200        3-1     10.992 /_  112.7   0.83269
   -   4     0.053138 /_   25.9 0.0069725    13.200
LATC28 1       6.2939 /_  -37.0   0.82586    13.200        1-2     10.984 /_   -6.5   0.83209
   -   2       6.4159 /_ -156.6   0.84187    13.200        2-3     11.127 /_ -127.0   0.84296
   -   3       6.3899 /_   82.8   0.83846    13.200        3-1     10.971 /_  112.6   0.83117
   -   4     0.053262 /_   26.0 0.0069889    13.200
LATC29 1       6.2838 /_  -37.0   0.82453    13.200        1-2     10.967 /_   -6.5   0.83081
   -   2       6.4065 /_ -156.6   0.84063    13.200        2-3     11.112 /_ -127.0   0.84179
   -   3       6.3811 /_   82.7   0.83731    13.200        3-1     10.955 /_  112.6   0.82989
   -   4     0.053367 /_   26.1 0.0070026    13.200
LATC30 1       6.2757 /_  -37.1   0.82347    13.200        1-2     10.953 /_   -6.5   0.82979
   -   2       6.3989 /_ -156.6   0.83963    13.200        2-3     11.099 /_ -127.0   0.84085
   -   3       6.3741 /_   82.7   0.83638    13.200        3-1     10.941 /_  112.6   0.82887
   -   4     0.053451 /_   26.1 0.0070136    13.200
LATD31 1       6.1838 /_  -37.5   0.81141    13.200        1-2     10.828 /_   -6.7   0.82034
   -   2       6.3669 /_ -156.8   0.83545    13.200        2-3     11.008 /_ -127.3    0.8339
   -   3       6.3027 /_   82.6   0.82701    13.200        3-1     10.819 /_  112.2   0.81966
   -   4     0.035413 /_   23.8 0.0046467    13.200
LATD32 1       6.1602 /_  -37.6   0.80832    13.200        1-2     10.789 /_   -6.7   0.81737
   -   2       6.3444 /_ -156.9   0.83249    13.200        2-3     10.971 /_ -127.3   0.83115
   -   3       6.2825 /_   82.5   0.82437    13.200        3-1      10.78 /_  112.1   0.81669
   -   4     0.035867 /_   24.5 0.0047063    13.200
LATD33 1        6.138 /_  -37.7   0.80541    13.200        1-2     10.752 /_   -6.8   0.81454
   -   2       6.3262 /_ -156.9    0.8301    13.200        2-3     10.938 /_ -127.4   0.82863
   -   3       6.2596 /_   82.4   0.82136    13.200        3-1     10.741 /_  112.0   0.81373
   -   4     0.034999 /_   22.1 0.0045924    13.200
LATD34 1       6.1133 /_  -37.8   0.80216    13.200        1-2     10.715 /_   -6.9   0.81173
   -   2       6.3092 /_ -157.0   0.82787    13.200        2-3     10.906 /_ -127.5   0.82624
   -   3       6.2409 /_   82.3   0.81891    13.200        3-1     10.705 /_  111.9   0.81101
   -   4      0.03317 /_   23.1 0.0043525    13.200
LATD35 1       6.0928 /_  -37.8   0.79947    13.200        1-2     10.681 /_   -6.9   0.80914
   -   2       6.2896 /_ -157.0   0.82529    13.200        2-3     10.875 /_ -127.6   0.82384
   -   3       6.2233 /_   82.2    0.8166    13.200        3-1     10.671 /_  111.9   0.80842
   -   4     0.033556 /_   23.7  0.004403    13.200
LATD36 1       6.0735 /_  -37.9   0.79694    13.200        1-2     10.648 /_   -7.0   0.80669
   -   2       6.2742 /_ -157.1   0.82327    13.200        2-3     10.846 /_ -127.6   0.82167
   -   3        6.203 /_   82.2   0.81393    13.200        3-1     10.637 /_  111.8   0.80584
   -   4     0.032656 /_   21.0  0.004285    13.200
LATD37 1       6.0621 /_  -38.0   0.79545    13.200        1-2     10.629 /_   -7.0   0.80522
   -   2       6.2663 /_ -157.1   0.82224    13.200        2-3     10.829 /_ -127.7   0.82041
   -   3       6.1893 /_   82.1   0.81214    13.200        3-1     10.616 /_  111.7   0.80424
   -   4     0.031696 /_   18.0  0.004159    13.200
LATD38 1       6.0586 /_  -38.0   0.79498    13.200        1-2     10.623 /_   -7.0   0.80474
   -   2       6.2659 /_ -157.1   0.82218    13.200        2-3     10.825 /_ -127.7   0.82007
   -   3       6.1824 /_   82.1   0.81124    13.200        3-1     10.608 /_  111.7   0.80363
   -   4     0.030706 /_   14.5 0.0040291    13.200
LATD39 1        6.057 /_  -38.1   0.79477    13.200        1-2     10.619 /_   -7.0   0.80451
   -   2       6.2673 /_ -157.1   0.82238    13.200        2-3     10.823 /_ -127.7   0.81996
   -   3       6.1772 /_   82.1   0.81055    13.200        3-1     10.603 /_  111.7   0.80327
   -   4     0.029816 /_   10.6 0.0039123    13.200
LATD40 1       6.0529 /_  -38.1   0.79423    13.200        1-2     10.617 /_   -7.0   0.80429
   -   2         6.27 /_ -157.1   0.82273    13.200        2-3     10.824 /_ -127.7   0.81997
   -   3       6.1761 /_   82.1   0.81041    13.200        3-1     10.601 /_  111.7   0.80314
   -   4     0.027642 /_   10.1  0.003627    13.200
